
     RDKit          3D

 29 32  0  0  0  0  0  0  0  0999 V2000
   -3.2506   -1.4085   -0.3478 C   0  0  0  0  0  0  0  0  0  0  0  0
   -3.5076   -1.4455   -1.7001 C   0  0  0  0  0  0  0  0  0  0  0  0
   -2.5766   -0.9435   -2.5734 C   0  0  0  0  0  0  0  0  0  0  0  0
   -1.3998   -0.4104   -2.0837 C   0  0  0  0  0  0  0  0  0  0  0  0
   -1.1332   -0.3689   -0.7308 C   0  0  0  0  0  0  0  0  0  0  0  0
   -2.0829   -0.8783    0.1182 C   0  0  0  0  0  0  0  0  0  0  0  0
    0.1176    0.2018   -0.2764 C   0  0  0  0  0  0  0  0  0  0  0  0
    0.1639    1.5415   -0.0022 C   0  0  0  0  0  0  0  0  0  0  0  0
   -0.9114    2.4062   -0.1283 C   0  0  0  0  0  0  0  0  0  0  0  0
   -0.7668    3.7643    0.1764 C   0  0  0  0  0  0  0  0  0  0  0  0
    0.4335    4.2908    0.6084 C   0  0  0  0  0  0  0  0  0  0  0  0
    0.5194    5.5210    0.8721 O   0  0  0  0  0  0  0  0  0  0  0  0
    1.5152    3.4400    0.7390 C   0  0  0  0  0  0  0  0  0  0  0  0
    1.4355    2.0868    0.4531 C   0  0  0  0  0  0  0  0  0  0  0  0
    2.4572    1.2759    0.5750 O   0  0  0  0  0  0  0  0  0  0  0  0
    2.3947   -0.0174    0.3054 C   0  0  0  0  0  0  0  0  0  0  0  0
    3.5017   -0.8399    0.4485 C   0  0  0  0  0  0  0  0  0  0  0  0
    3.4750   -2.1909    0.1775 C   0  0  0  0  0  0  0  0  0  0  0  0
    2.3107   -2.7832   -0.2575 C   0  0  0  0  0  0  0  0  0  0  0  0
    1.1832   -1.9694   -0.4079 C   0  0  0  0  0  0  0  0  0  0  0  0
    1.2327   -0.6215   -0.1312 C   0  0  0  0  0  0  0  0  0  0  0  0
    2.2233   -4.6456   -0.6450 Br  0  0  0  0  0  0  0  0  0  0  0  0
    4.5989   -3.0069    0.3265 O   0  0  0  0  0  0  0  0  0  0  0  0
    5.1491   -0.0937    1.0460 Br  0  0  0  0  0  0  0  0  0  0  0  0
    3.1620    4.1902    1.3372 Br  0  0  0  0  0  0  0  0  0  0  0  0
   -2.2853    4.9005   -0.0183 Br  0  0  0  0  0  0  0  0  0  0  0  0
   -0.4215    0.1189   -3.0292 C   0  0  0  0  0  0  0  0  0  0  0  0
    0.6548    0.6086   -2.6142 O   0  0  0  0  0  0  0  0  0  0  0  0
   -0.6596    0.0920   -4.3978 O   0  0  0  0  0  0  0  0  0  0  0  0
  1  2  2  0
  2  3  1  0
  3  4  2  0
  4  5  1  0
  5  6  2  0
  5  7  1  0
  7  8  2  0
  8  9  1  0
  9 10  2  0
 10 11  1  0
 11 12  2  0
 11 13  1  0
 13 14  2  0
 14 15  1  0
 15 16  1  0
 16 17  2  0
 17 18  1  0
 18 19  2  0
 19 20  1  0
 20 21  2  0
 19 22  1  0
 18 23  1  0
 17 24  1  0
 13 25  1  0
 10 26  1  0
  4 27  1  0
 27 28  2  0
 27 29  1  0
  6  1  1  0
 21  7  1  0
 14  8  1  0
 21 16  1  0
M  END
$$$$
