
     RDKit          3D

 29 32  0  0  0  0  0  0  0  0999 V2000
   -2.6144   -1.0274   -2.5444 C   0  0  0  0  0  0  0  0  0  0  0  0
   -3.4804   -1.5192   -1.5790 C   0  0  0  0  0  0  0  0  0  0  0  0
   -3.1877   -1.4483   -0.2309 C   0  0  0  0  0  0  0  0  0  0  0  0
   -2.0132   -0.8814    0.2175 C   0  0  0  0  0  0  0  0  0  0  0  0
   -1.1496   -0.3914   -0.7397 C   0  0  0  0  0  0  0  0  0  0  0  0
   -1.4392   -0.4602   -2.0948 C   0  0  0  0  0  0  0  0  0  0  0  0
    0.0866    0.2062   -0.2840 C   0  0  0  0  0  0  0  0  0  0  0  0
    0.1546    1.5546   -0.0021 C   0  0  0  0  0  0  0  0  0  0  0  0
   -0.9209    2.3928   -0.1335 C   0  0  0  0  0  0  0  0  0  0  0  0
   -0.7755    3.7389    0.1691 C   0  0  0  0  0  0  0  0  0  0  0  0
    0.4435    4.2460    0.6024 C   0  0  0  0  0  0  0  0  0  0  0  0
    0.5224    5.4874    0.8664 O   0  0  0  0  0  0  0  0  0  0  0  0
    1.5327    3.3998    0.7360 C   0  0  0  0  0  0  0  0  0  0  0  0
    1.4452    2.0655    0.4515 C   0  0  0  0  0  0  0  0  0  0  0  0
    2.4577    1.2372    0.5676 O   0  0  0  0  0  0  0  0  0  0  0  0
    2.3866   -0.0404    0.2987 C   0  0  0  0  0  0  0  0  0  0  0  0
    3.5283   -0.7976    0.4641 C   0  0  0  0  0  0  0  0  0  0  0  0
    3.4524   -2.1592    0.1774 C   0  0  0  0  0  0  0  0  0  0  0  0
    2.2905   -2.7588   -0.2583 C   0  0  0  0  0  0  0  0  0  0  0  0
    1.1785   -1.9600   -0.4074 C   0  0  0  0  0  0  0  0  0  0  0  0
    1.1960   -0.6083   -0.1387 C   0  0  0  0  0  0  0  0  0  0  0  0
    2.2175   -4.6371   -0.6449 Br  0  0  0  0  0  0  0  0  0  0  0  0
    4.5954   -2.9212    0.3422 O   0  0  0  0  0  0  0  0  0  0  0  0
    5.1727   -0.0235    1.0662 Br  0  0  0  0  0  0  0  0  0  0  0  0
    3.2041    4.0999    1.3311 Br  0  0  0  0  0  0  0  0  0  0  0  0
   -2.2582    4.9282   -0.0055 Br  0  0  0  0  0  0  0  0  0  0  0  0
   -1.6984   -0.8042    1.6482 C   0  0  0  0  0  0  0  0  0  0  0  0
   -0.6301   -0.2887    2.0567 O   0  0  0  0  0  0  0  0  0  0  0  0
   -2.5757   -1.3008    2.5979 O   0  0  0  0  0  0  0  0  0  0  0  0
  1  2  2  0
  2  3  1  0
  3  4  2  0
  4  5  1  0
  5  6  2  0
  5  7  1  0
  7  8  2  0
  8  9  1  0
  9 10  2  0
 10 11  1  0
 11 12  2  0
 11 13  1  0
 13 14  2  0
 14 15  1  0
 15 16  1  0
 16 17  2  0
 17 18  1  0
 18 19  2  0
 19 20  1  0
 20 21  2  0
 19 22  1  0
 18 23  1  0
 17 24  1  0
 13 25  1  0
 10 26  1  0
  4 27  1  0
 27 28  2  0
 27 29  1  0
  6  1  1  0
 21  7  1  0
 14  8  1  0
 21 16  1  0
M  END
$$$$
